<?xml version="1.0" encoding="utf-8"?>
<!DOCTYPE population SYSTEM "http://www.matsim.org/files/dtd/population_v6.dtd">

<population>



<!-- ====================================================================== -->

	<person id="person_1">
		<plan selected="yes">
			<activity type="home" x="674879.6178812715" y="6580356.088642416" end_time="07:00:00" >
			</activity>
			<leg mode="bike">
			</leg>
			<activity type="work" x="674629.5973095701" y="6580356.1475909185" end_time="15:00:00" >
			</activity>
			<leg mode="bike">
			</leg>
			<activity type="home" x="674879.6178812715" y="6580356.088642416" >
			</activity>
		</plan>

	</person>

<!-- ====================================================================== -->

	<person id="person_2">
		<plan selected="yes">
			<activity type="home" x="674629.5578998558" y="6580106.126440164" end_time="09:00:00" >
			</activity>
			<leg mode="bike">
			</leg>
			<activity type="work" x="674879.6466352429" y="6580106.181129897" end_time="17:00:00" >
			</activity>
			<leg mode="bike">
			</leg>
			<activity type="home" x="674629.5578998558" y="6580106.126440164" >
			</activity>
		</plan>

	</person>

<!-- ====================================================================== -->

	<person id="person_3">
		<plan selected="yes">
			<activity type="home" x="674879.6466352429" y="6580106.181129897" end_time="03:00:00" >
			</activity>
			<leg mode="bike">
			</leg>
			<activity type="work" x="674879.6466352429" y="6580106.181129897" end_time="11:00:00" >
			</activity>
			<leg mode="bike">
			</leg>
			<activity type="home" x="674879.6466352429" y="6580106.181129897" >
			</activity>
		</plan>

	</person>

<!-- ====================================================================== -->

	<person id="person_4">
		<plan selected="yes">
			<activity type="home" x="674629.5973095701" y="6580356.1475909185" end_time="08:00:00" >
			</activity>
			<leg mode="bike">
			</leg>
			<activity type="work" x="674629.5578998558" y="6580106.126440164" end_time="16:00:00" >
			</activity>
			<leg mode="bike">
			</leg>
			<activity type="home" x="674629.5973095701" y="6580356.1475909185" >
			</activity>
		</plan>

	</person>

<!-- ====================================================================== -->

	<person id="person_5">
		<plan selected="yes">
			<activity type="home" x="674879.6178812715" y="6580356.088642416" end_time="08:00:00" >
			</activity>
			<leg mode="bike">
			</leg>
			<activity type="work" x="674879.6178812715" y="6580356.088642416" end_time="16:00:00" >
			</activity>
			<leg mode="bike">
			</leg>
			<activity type="home" x="674879.6178812715" y="6580356.088642416" >
			</activity>
		</plan>

	</person>

<!-- ====================================================================== -->

	<person id="person_6">
		<plan selected="yes">
			<activity type="home" x="674629.5578998558" y="6580106.126440164" end_time="08:00:00" >
			</activity>
			<leg mode="bike">
			</leg>
			<activity type="work" x="674879.6178812715" y="6580356.088642416" end_time="16:00:00" >
			</activity>
			<leg mode="bike">
			</leg>
			<activity type="home" x="674629.5578998558" y="6580106.126440164" >
			</activity>
		</plan>

	</person>

<!-- ====================================================================== -->

	<person id="person_7">
		<plan selected="yes">
			<activity type="home" x="674629.5578998558" y="6580106.126440164" end_time="08:00:00" >
			</activity>
			<leg mode="bike">
			</leg>
			<activity type="work" x="674879.6466352429" y="6580106.181129897" end_time="16:00:00" >
			</activity>
			<leg mode="bike">
			</leg>
			<activity type="home" x="674629.5578998558" y="6580106.126440164" >
			</activity>
		</plan>

	</person>

<!-- ====================================================================== -->

	<person id="person_8">
		<plan selected="yes">
			<activity type="home" x="674629.5973095701" y="6580356.1475909185" end_time="08:00:00" >
			</activity>
			<leg mode="bike">
			</leg>
			<activity type="work" x="674879.6466352429" y="6580106.181129897" end_time="16:00:00" >
			</activity>
			<leg mode="bike">
			</leg>
			<activity type="home" x="674629.5973095701" y="6580356.1475909185" >
			</activity>
		</plan>

	</person>

<!-- ====================================================================== -->

</population>
