<?xml version="1.0" encoding="utf-8"?>
<!DOCTYPE population SYSTEM "http://www.matsim.org/files/dtd/population_v6.dtd">

<population>



<!-- ====================================================================== -->

	<person id="person_1">
		<plan selected="yes">
			<activity type="home" x="-1188657.407621673" y="7.564450414258333" end_time="14:00:00" >
			</activity>
			<leg mode="bike">
			</leg>
			<activity type="work" x="-1188657.3188960934" y="7.677762625934877" end_time="21:00:00" >
			</activity>
			<leg mode="bike">
			</leg>
			<activity type="home" x="-1188657.407621673" y="7.564450414258333" >
			</activity>
		</plan>

	</person>

<!-- ====================================================================== -->

	<person id="person_10">
		<plan selected="yes">
			<activity type="home" x="-1188657.2301705137" y="7.79107483678946" end_time="06:00:00" >
			</activity>
			<leg mode="bike">
			</leg>
			<activity type="work" x="-1188657.2301705137" y="7.79107483678946" end_time="14:00:00" >
			</activity>
			<leg mode="bike">
			</leg>
			<activity type="home" x="-1188657.2301705137" y="7.79107483678946" >
			</activity>
		</plan>

	</person>

<!-- ====================================================================== -->

	<person id="person_11">
		<plan selected="yes">
			<activity type="home" x="-1188657.407621673" y="7.564450414258333" end_time="06:00:00" >
			</activity>
			<leg mode="bike">
			</leg>
			<activity type="work" x="-1188657.2301705137" y="7.79107483678946" end_time="14:00:00" >
			</activity>
			<leg mode="bike">
			</leg>
			<activity type="home" x="-1188657.407621673" y="7.564450414258333" >
			</activity>
		</plan>

	</person>

<!-- ====================================================================== -->

	<person id="person_12">
		<plan selected="yes">
			<activity type="home" x="-1188657.3188960934" y="7.677762625934877" end_time="08:00:00" >
			</activity>
			<leg mode="bike">
			</leg>
			<activity type="work" x="-1188657.2301705137" y="7.79107483678946" end_time="16:00:00" >
			</activity>
			<leg mode="bike">
			</leg>
			<activity type="home" x="-1188657.3188960934" y="7.677762625934877" >
			</activity>
		</plan>

	</person>

<!-- ====================================================================== -->

	<person id="person_13">
		<plan selected="yes">
			<activity type="home" x="-1188657.407621673" y="7.564450414258333" end_time="08:00:00" >
			</activity>
			<leg mode="bike">
			</leg>
			<activity type="work" x="-1188657.3188960934" y="7.677762625934877" end_time="16:00:00" >
			</activity>
			<leg mode="bike">
			</leg>
			<activity type="home" x="-1188657.407621673" y="7.564450414258333" >
			</activity>
		</plan>

	</person>

<!-- ====================================================================== -->

	<person id="person_14">
		<plan selected="yes">
			<activity type="home" x="-1188657.2301705137" y="7.79107483678946" end_time="07:00:00" >
			</activity>
			<leg mode="bike">
			</leg>
			<activity type="work" x="-1188657.2301705137" y="7.79107483678946" end_time="15:00:00" >
			</activity>
			<leg mode="bike">
			</leg>
			<activity type="home" x="-1188657.2301705137" y="7.79107483678946" >
			</activity>
		</plan>

	</person>

<!-- ====================================================================== -->

	<person id="person_15">
		<plan selected="yes">
			<activity type="home" x="-1188657.3188960934" y="7.677762625934877" end_time="07:00:00" >
			</activity>
			<leg mode="bike">
			</leg>
			<activity type="work" x="-1188657.3188960934" y="7.677762625934877" end_time="15:00:00" >
			</activity>
			<leg mode="bike">
			</leg>
			<activity type="home" x="-1188657.3188960934" y="7.677762625934877" >
			</activity>
		</plan>

	</person>

<!-- ====================================================================== -->

	<person id="person_16">
		<plan selected="yes">
			<activity type="home" x="-1188657.2301705137" y="7.79107483678946" end_time="07:00:00" >
			</activity>
			<leg mode="bike">
			</leg>
			<activity type="work" x="-1188657.3188960934" y="7.677762625934877" end_time="15:00:00" >
			</activity>
			<leg mode="bike">
			</leg>
			<activity type="home" x="-1188657.2301705137" y="7.79107483678946" >
			</activity>
		</plan>

	</person>

<!-- ====================================================================== -->

	<person id="person_17">
		<plan selected="yes">
			<activity type="home" x="-1188657.2301705137" y="7.79107483678946" end_time="03:00:00" >
			</activity>
			<leg mode="bike">
			</leg>
			<activity type="work" x="-1188657.2301705137" y="7.79107483678946" end_time="11:00:00" >
			</activity>
			<leg mode="bike">
			</leg>
			<activity type="home" x="-1188657.2301705137" y="7.79107483678946" >
			</activity>
		</plan>

	</person>

<!-- ====================================================================== -->

	<person id="person_18">
		<plan selected="yes">
			<activity type="home" x="-1188657.2301705137" y="7.79107483678946" end_time="08:00:00" >
			</activity>
			<leg mode="bike">
			</leg>
			<activity type="work" x="-1188657.2301705137" y="7.79107483678946" end_time="16:00:00" >
			</activity>
			<leg mode="bike">
			</leg>
			<activity type="home" x="-1188657.2301705137" y="7.79107483678946" >
			</activity>
		</plan>

	</person>

<!-- ====================================================================== -->

	<person id="person_19">
		<plan selected="yes">
			<activity type="home" x="-1188657.407621673" y="7.564450414258333" end_time="06:00:00" >
			</activity>
			<leg mode="bike">
			</leg>
			<activity type="work" x="-1188657.2301705137" y="7.79107483678946" end_time="14:00:00" >
			</activity>
			<leg mode="bike">
			</leg>
			<activity type="home" x="-1188657.407621673" y="7.564450414258333" >
			</activity>
		</plan>

	</person>

<!-- ====================================================================== -->

	<person id="person_2">
		<plan selected="yes">
			<activity type="home" x="-1188657.673798409" y="7.224513774296942" end_time="06:00:00" >
			</activity>
			<leg mode="bike">
			</leg>
			<activity type="work" x="-1188657.673798409" y="7.224513774296942" end_time="14:00:00" >
			</activity>
			<leg mode="bike">
			</leg>
			<activity type="home" x="-1188657.673798409" y="7.224513774296942" >
			</activity>
		</plan>

	</person>

<!-- ====================================================================== -->

	<person id="person_20">
		<plan selected="yes">
			<activity type="home" x="-1188657.673798409" y="7.224513774296942" end_time="06:00:00" >
			</activity>
			<leg mode="bike">
			</leg>
			<activity type="work" x="-1188657.673798409" y="7.224513774296942" end_time="14:00:00" >
			</activity>
			<leg mode="bike">
			</leg>
			<activity type="home" x="-1188657.673798409" y="7.224513774296942" >
			</activity>
		</plan>

	</person>

<!-- ====================================================================== -->

	<person id="person_21">
		<plan selected="yes">
			<activity type="home" x="-1188657.3188960934" y="7.677762625934877" end_time="11:00:00" >
			</activity>
			<leg mode="bike">
			</leg>
			<activity type="work" x="-1188657.673798409" y="7.224513774296942" end_time="19:00:00" >
			</activity>
			<leg mode="bike">
			</leg>
			<activity type="home" x="-1188657.3188960934" y="7.677762625934877" >
			</activity>
		</plan>

	</person>

<!-- ====================================================================== -->

	<person id="person_22">
		<plan selected="yes">
			<activity type="home" x="-1188657.3188960934" y="7.677762625934877" end_time="14:00:00" >
			</activity>
			<leg mode="bike">
			</leg>
			<activity type="work" x="-1188657.3188960934" y="7.677762625934877" end_time="21:00:00" >
			</activity>
			<leg mode="bike">
			</leg>
			<activity type="home" x="-1188657.3188960934" y="7.677762625934877" >
			</activity>
		</plan>

	</person>

<!-- ====================================================================== -->

	<person id="person_3">
		<plan selected="yes">
			<activity type="home" x="-1188657.407621673" y="7.564450414258333" end_time="05:00:00" >
			</activity>
			<leg mode="bike">
			</leg>
			<activity type="work" x="-1188657.673798409" y="7.224513774296942" end_time="13:00:00" >
			</activity>
			<leg mode="bike">
			</leg>
			<activity type="home" x="-1188657.407621673" y="7.564450414258333" >
			</activity>
		</plan>

	</person>

<!-- ====================================================================== -->

	<person id="person_4">
		<plan selected="yes">
			<activity type="home" x="-1188657.407621673" y="7.564450414258333" end_time="09:00:00" >
			</activity>
			<leg mode="bike">
			</leg>
			<activity type="work" x="-1188657.2301705137" y="7.79107483678946" end_time="17:00:00" >
			</activity>
			<leg mode="bike">
			</leg>
			<activity type="home" x="-1188657.407621673" y="7.564450414258333" >
			</activity>
		</plan>

	</person>

<!-- ====================================================================== -->

	<person id="person_5">
		<plan selected="yes">
			<activity type="home" x="-1188657.2301705137" y="7.79107483678946" end_time="06:00:00" >
			</activity>
			<leg mode="bike">
			</leg>
			<activity type="work" x="-1188657.2301705137" y="7.79107483678946" end_time="14:00:00" >
			</activity>
			<leg mode="bike">
			</leg>
			<activity type="home" x="-1188657.2301705137" y="7.79107483678946" >
			</activity>
		</plan>

	</person>

<!-- ====================================================================== -->

	<person id="person_6">
		<plan selected="yes">
			<activity type="home" x="-1188657.407621673" y="7.564450414258333" end_time="12:00:00" >
			</activity>
			<leg mode="bike">
			</leg>
			<activity type="work" x="-1188657.2301705137" y="7.79107483678946" end_time="20:00:00" >
			</activity>
			<leg mode="bike">
			</leg>
			<activity type="home" x="-1188657.407621673" y="7.564450414258333" >
			</activity>
		</plan>

	</person>

<!-- ====================================================================== -->

	<person id="person_7">
		<plan selected="yes">
			<activity type="home" x="-1188657.673798409" y="7.224513774296942" end_time="08:00:00" >
			</activity>
			<leg mode="bike">
			</leg>
			<activity type="work" x="-1188657.3188960934" y="7.677762625934877" end_time="16:00:00" >
			</activity>
			<leg mode="bike">
			</leg>
			<activity type="home" x="-1188657.673798409" y="7.224513774296942" >
			</activity>
		</plan>

	</person>

<!-- ====================================================================== -->

	<person id="person_8">
		<plan selected="yes">
			<activity type="home" x="-1188657.407621673" y="7.564450414258333" end_time="08:00:00" >
			</activity>
			<leg mode="bike">
			</leg>
			<activity type="work" x="-1188657.2301705137" y="7.79107483678946" end_time="16:00:00" >
			</activity>
			<leg mode="bike">
			</leg>
			<activity type="home" x="-1188657.407621673" y="7.564450414258333" >
			</activity>
		</plan>

	</person>

<!-- ====================================================================== -->

	<person id="person_9">
		<plan selected="yes">
			<activity type="home" x="-1188657.3188960934" y="7.677762625934877" end_time="07:00:00" >
			</activity>
			<leg mode="bike">
			</leg>
			<activity type="work" x="-1188657.2301705137" y="7.79107483678946" end_time="15:00:00" >
			</activity>
			<leg mode="bike">
			</leg>
			<activity type="home" x="-1188657.3188960934" y="7.677762625934877" >
			</activity>
		</plan>

	</person>

<!-- ====================================================================== -->

</population>
