<?xml version="1.0" encoding="UTF-8"?>
<!DOCTYPE network SYSTEM "http://www.matsim.org/files/dtd/network_v2.dtd">
<network>

<!-- ====================================================================== -->

	<nodes>
		<node id="0" x="0.0" y="0.0" >
		</node>
		<node id="1" x="100.0" y="0.0" >
		</node>
		<node id="10" x="1000.0" y="0.0" >
		</node>
		<node id="100" x="10000.0" y="0.0" >
		</node>
		<node id="1000" x="100000.0" y="0.0" >
		</node>
		<node id="101" x="10100.0" y="0.0" >
		</node>
		<node id="102" x="10200.0" y="0.0" >
		</node>
		<node id="103" x="10300.0" y="0.0" >
		</node>
		<node id="104" x="10400.0" y="0.0" >
		</node>
		<node id="105" x="10500.0" y="0.0" >
		</node>
		<node id="106" x="10600.0" y="0.0" >
		</node>
		<node id="107" x="10700.0" y="0.0" >
		</node>
		<node id="108" x="10800.0" y="0.0" >
		</node>
		<node id="109" x="10900.0" y="0.0" >
		</node>
		<node id="11" x="1100.0" y="0.0" >
		</node>
		<node id="110" x="11000.0" y="0.0" >
		</node>
		<node id="111" x="11100.0" y="0.0" >
		</node>
		<node id="112" x="11200.0" y="0.0" >
		</node>
		<node id="113" x="11300.0" y="0.0" >
		</node>
		<node id="114" x="11400.0" y="0.0" >
		</node>
		<node id="115" x="11500.0" y="0.0" >
		</node>
		<node id="116" x="11600.0" y="0.0" >
		</node>
		<node id="117" x="11700.0" y="0.0" >
		</node>
		<node id="118" x="11800.0" y="0.0" >
		</node>
		<node id="119" x="11900.0" y="0.0" >
		</node>
		<node id="12" x="1200.0" y="0.0" >
		</node>
		<node id="120" x="12000.0" y="0.0" >
		</node>
		<node id="121" x="12100.0" y="0.0" >
		</node>
		<node id="122" x="12200.0" y="0.0" >
		</node>
		<node id="123" x="12300.0" y="0.0" >
		</node>
		<node id="124" x="12400.0" y="0.0" >
		</node>
		<node id="125" x="12500.0" y="0.0" >
		</node>
		<node id="126" x="12600.0" y="0.0" >
		</node>
		<node id="127" x="12700.0" y="0.0" >
		</node>
		<node id="128" x="12800.0" y="0.0" >
		</node>
		<node id="129" x="12900.0" y="0.0" >
		</node>
		<node id="13" x="1300.0" y="0.0" >
		</node>
		<node id="130" x="13000.0" y="0.0" >
		</node>
		<node id="131" x="13100.0" y="0.0" >
		</node>
		<node id="132" x="13200.0" y="0.0" >
		</node>
		<node id="133" x="13300.0" y="0.0" >
		</node>
		<node id="134" x="13400.0" y="0.0" >
		</node>
		<node id="135" x="13500.0" y="0.0" >
		</node>
		<node id="136" x="13600.0" y="0.0" >
		</node>
		<node id="137" x="13700.0" y="0.0" >
		</node>
		<node id="138" x="13800.0" y="0.0" >
		</node>
		<node id="139" x="13900.0" y="0.0" >
		</node>
		<node id="14" x="1400.0" y="0.0" >
		</node>
		<node id="140" x="14000.0" y="0.0" >
		</node>
		<node id="141" x="14100.0" y="0.0" >
		</node>
		<node id="142" x="14200.0" y="0.0" >
		</node>
		<node id="143" x="14300.0" y="0.0" >
		</node>
		<node id="144" x="14400.0" y="0.0" >
		</node>
		<node id="145" x="14500.0" y="0.0" >
		</node>
		<node id="146" x="14600.0" y="0.0" >
		</node>
		<node id="147" x="14700.0" y="0.0" >
		</node>
		<node id="148" x="14800.0" y="0.0" >
		</node>
		<node id="149" x="14900.0" y="0.0" >
		</node>
		<node id="15" x="1500.0" y="0.0" >
		</node>
		<node id="150" x="15000.0" y="0.0" >
		</node>
		<node id="151" x="15100.0" y="0.0" >
		</node>
		<node id="152" x="15200.0" y="0.0" >
		</node>
		<node id="153" x="15300.0" y="0.0" >
		</node>
		<node id="154" x="15400.0" y="0.0" >
		</node>
		<node id="155" x="15500.0" y="0.0" >
		</node>
		<node id="156" x="15600.0" y="0.0" >
		</node>
		<node id="157" x="15700.0" y="0.0" >
		</node>
		<node id="158" x="15800.0" y="0.0" >
		</node>
		<node id="159" x="15900.0" y="0.0" >
		</node>
		<node id="16" x="1600.0" y="0.0" >
		</node>
		<node id="160" x="16000.0" y="0.0" >
		</node>
		<node id="161" x="16100.0" y="0.0" >
		</node>
		<node id="162" x="16200.0" y="0.0" >
		</node>
		<node id="163" x="16300.0" y="0.0" >
		</node>
		<node id="164" x="16400.0" y="0.0" >
		</node>
		<node id="165" x="16500.0" y="0.0" >
		</node>
		<node id="166" x="16600.0" y="0.0" >
		</node>
		<node id="167" x="16700.0" y="0.0" >
		</node>
		<node id="168" x="16800.0" y="0.0" >
		</node>
		<node id="169" x="16900.0" y="0.0" >
		</node>
		<node id="17" x="1700.0" y="0.0" >
		</node>
		<node id="170" x="17000.0" y="0.0" >
		</node>
		<node id="171" x="17100.0" y="0.0" >
		</node>
		<node id="172" x="17200.0" y="0.0" >
		</node>
		<node id="173" x="17300.0" y="0.0" >
		</node>
		<node id="174" x="17400.0" y="0.0" >
		</node>
		<node id="175" x="17500.0" y="0.0" >
		</node>
		<node id="176" x="17600.0" y="0.0" >
		</node>
		<node id="177" x="17700.0" y="0.0" >
		</node>
		<node id="178" x="17800.0" y="0.0" >
		</node>
		<node id="179" x="17900.0" y="0.0" >
		</node>
		<node id="18" x="1800.0" y="0.0" >
		</node>
		<node id="180" x="18000.0" y="0.0" >
		</node>
		<node id="181" x="18100.0" y="0.0" >
		</node>
		<node id="182" x="18200.0" y="0.0" >
		</node>
		<node id="183" x="18300.0" y="0.0" >
		</node>
		<node id="184" x="18400.0" y="0.0" >
		</node>
		<node id="185" x="18500.0" y="0.0" >
		</node>
		<node id="186" x="18600.0" y="0.0" >
		</node>
		<node id="187" x="18700.0" y="0.0" >
		</node>
		<node id="188" x="18800.0" y="0.0" >
		</node>
		<node id="189" x="18900.0" y="0.0" >
		</node>
		<node id="19" x="1900.0" y="0.0" >
		</node>
		<node id="190" x="19000.0" y="0.0" >
		</node>
		<node id="191" x="19100.0" y="0.0" >
		</node>
		<node id="192" x="19200.0" y="0.0" >
		</node>
		<node id="193" x="19300.0" y="0.0" >
		</node>
		<node id="194" x="19400.0" y="0.0" >
		</node>
		<node id="195" x="19500.0" y="0.0" >
		</node>
		<node id="196" x="19600.0" y="0.0" >
		</node>
		<node id="197" x="19700.0" y="0.0" >
		</node>
		<node id="198" x="19800.0" y="0.0" >
		</node>
		<node id="199" x="19900.0" y="0.0" >
		</node>
		<node id="2" x="200.0" y="0.0" >
		</node>
		<node id="20" x="2000.0" y="0.0" >
		</node>
		<node id="200" x="20000.0" y="0.0" >
		</node>
		<node id="201" x="20100.0" y="0.0" >
		</node>
		<node id="202" x="20200.0" y="0.0" >
		</node>
		<node id="203" x="20300.0" y="0.0" >
		</node>
		<node id="204" x="20400.0" y="0.0" >
		</node>
		<node id="205" x="20500.0" y="0.0" >
		</node>
		<node id="206" x="20600.0" y="0.0" >
		</node>
		<node id="207" x="20700.0" y="0.0" >
		</node>
		<node id="208" x="20800.0" y="0.0" >
		</node>
		<node id="209" x="20900.0" y="0.0" >
		</node>
		<node id="21" x="2100.0" y="0.0" >
		</node>
		<node id="210" x="21000.0" y="0.0" >
		</node>
		<node id="211" x="21100.0" y="0.0" >
		</node>
		<node id="212" x="21200.0" y="0.0" >
		</node>
		<node id="213" x="21300.0" y="0.0" >
		</node>
		<node id="214" x="21400.0" y="0.0" >
		</node>
		<node id="215" x="21500.0" y="0.0" >
		</node>
		<node id="216" x="21600.0" y="0.0" >
		</node>
		<node id="217" x="21700.0" y="0.0" >
		</node>
		<node id="218" x="21800.0" y="0.0" >
		</node>
		<node id="219" x="21900.0" y="0.0" >
		</node>
		<node id="22" x="2200.0" y="0.0" >
		</node>
		<node id="220" x="22000.0" y="0.0" >
		</node>
		<node id="221" x="22100.0" y="0.0" >
		</node>
		<node id="222" x="22200.0" y="0.0" >
		</node>
		<node id="223" x="22300.0" y="0.0" >
		</node>
		<node id="224" x="22400.0" y="0.0" >
		</node>
		<node id="225" x="22500.0" y="0.0" >
		</node>
		<node id="226" x="22600.0" y="0.0" >
		</node>
		<node id="227" x="22700.0" y="0.0" >
		</node>
		<node id="228" x="22800.0" y="0.0" >
		</node>
		<node id="229" x="22900.0" y="0.0" >
		</node>
		<node id="23" x="2300.0" y="0.0" >
		</node>
		<node id="230" x="23000.0" y="0.0" >
		</node>
		<node id="231" x="23100.0" y="0.0" >
		</node>
		<node id="232" x="23200.0" y="0.0" >
		</node>
		<node id="233" x="23300.0" y="0.0" >
		</node>
		<node id="234" x="23400.0" y="0.0" >
		</node>
		<node id="235" x="23500.0" y="0.0" >
		</node>
		<node id="236" x="23600.0" y="0.0" >
		</node>
		<node id="237" x="23700.0" y="0.0" >
		</node>
		<node id="238" x="23800.0" y="0.0" >
		</node>
		<node id="239" x="23900.0" y="0.0" >
		</node>
		<node id="24" x="2400.0" y="0.0" >
		</node>
		<node id="240" x="24000.0" y="0.0" >
		</node>
		<node id="241" x="24100.0" y="0.0" >
		</node>
		<node id="242" x="24200.0" y="0.0" >
		</node>
		<node id="243" x="24300.0" y="0.0" >
		</node>
		<node id="244" x="24400.0" y="0.0" >
		</node>
		<node id="245" x="24500.0" y="0.0" >
		</node>
		<node id="246" x="24600.0" y="0.0" >
		</node>
		<node id="247" x="24700.0" y="0.0" >
		</node>
		<node id="248" x="24800.0" y="0.0" >
		</node>
		<node id="249" x="24900.0" y="0.0" >
		</node>
		<node id="25" x="2500.0" y="0.0" >
		</node>
		<node id="250" x="25000.0" y="0.0" >
		</node>
		<node id="251" x="25100.0" y="0.0" >
		</node>
		<node id="252" x="25200.0" y="0.0" >
		</node>
		<node id="253" x="25300.0" y="0.0" >
		</node>
		<node id="254" x="25400.0" y="0.0" >
		</node>
		<node id="255" x="25500.0" y="0.0" >
		</node>
		<node id="256" x="25600.0" y="0.0" >
		</node>
		<node id="257" x="25700.0" y="0.0" >
		</node>
		<node id="258" x="25800.0" y="0.0" >
		</node>
		<node id="259" x="25900.0" y="0.0" >
		</node>
		<node id="26" x="2600.0" y="0.0" >
		</node>
		<node id="260" x="26000.0" y="0.0" >
		</node>
		<node id="261" x="26100.0" y="0.0" >
		</node>
		<node id="262" x="26200.0" y="0.0" >
		</node>
		<node id="263" x="26300.0" y="0.0" >
		</node>
		<node id="264" x="26400.0" y="0.0" >
		</node>
		<node id="265" x="26500.0" y="0.0" >
		</node>
		<node id="266" x="26600.0" y="0.0" >
		</node>
		<node id="267" x="26700.0" y="0.0" >
		</node>
		<node id="268" x="26800.0" y="0.0" >
		</node>
		<node id="269" x="26900.0" y="0.0" >
		</node>
		<node id="27" x="2700.0" y="0.0" >
		</node>
		<node id="270" x="27000.0" y="0.0" >
		</node>
		<node id="271" x="27100.0" y="0.0" >
		</node>
		<node id="272" x="27200.0" y="0.0" >
		</node>
		<node id="273" x="27300.0" y="0.0" >
		</node>
		<node id="274" x="27400.0" y="0.0" >
		</node>
		<node id="275" x="27500.0" y="0.0" >
		</node>
		<node id="276" x="27600.0" y="0.0" >
		</node>
		<node id="277" x="27700.0" y="0.0" >
		</node>
		<node id="278" x="27800.0" y="0.0" >
		</node>
		<node id="279" x="27900.0" y="0.0" >
		</node>
		<node id="28" x="2800.0" y="0.0" >
		</node>
		<node id="280" x="28000.0" y="0.0" >
		</node>
		<node id="281" x="28100.0" y="0.0" >
		</node>
		<node id="282" x="28200.0" y="0.0" >
		</node>
		<node id="283" x="28300.0" y="0.0" >
		</node>
		<node id="284" x="28400.0" y="0.0" >
		</node>
		<node id="285" x="28500.0" y="0.0" >
		</node>
		<node id="286" x="28600.0" y="0.0" >
		</node>
		<node id="287" x="28700.0" y="0.0" >
		</node>
		<node id="288" x="28800.0" y="0.0" >
		</node>
		<node id="289" x="28900.0" y="0.0" >
		</node>
		<node id="29" x="2900.0" y="0.0" >
		</node>
		<node id="290" x="29000.0" y="0.0" >
		</node>
		<node id="291" x="29100.0" y="0.0" >
		</node>
		<node id="292" x="29200.0" y="0.0" >
		</node>
		<node id="293" x="29300.0" y="0.0" >
		</node>
		<node id="294" x="29400.0" y="0.0" >
		</node>
		<node id="295" x="29500.0" y="0.0" >
		</node>
		<node id="296" x="29600.0" y="0.0" >
		</node>
		<node id="297" x="29700.0" y="0.0" >
		</node>
		<node id="298" x="29800.0" y="0.0" >
		</node>
		<node id="299" x="29900.0" y="0.0" >
		</node>
		<node id="3" x="300.0" y="0.0" >
		</node>
		<node id="30" x="3000.0" y="0.0" >
		</node>
		<node id="300" x="30000.0" y="0.0" >
		</node>
		<node id="301" x="30100.0" y="0.0" >
		</node>
		<node id="302" x="30200.0" y="0.0" >
		</node>
		<node id="303" x="30300.0" y="0.0" >
		</node>
		<node id="304" x="30400.0" y="0.0" >
		</node>
		<node id="305" x="30500.0" y="0.0" >
		</node>
		<node id="306" x="30600.0" y="0.0" >
		</node>
		<node id="307" x="30700.0" y="0.0" >
		</node>
		<node id="308" x="30800.0" y="0.0" >
		</node>
		<node id="309" x="30900.0" y="0.0" >
		</node>
		<node id="31" x="3100.0" y="0.0" >
		</node>
		<node id="310" x="31000.0" y="0.0" >
		</node>
		<node id="311" x="31100.0" y="0.0" >
		</node>
		<node id="312" x="31200.0" y="0.0" >
		</node>
		<node id="313" x="31300.0" y="0.0" >
		</node>
		<node id="314" x="31400.0" y="0.0" >
		</node>
		<node id="315" x="31500.0" y="0.0" >
		</node>
		<node id="316" x="31600.0" y="0.0" >
		</node>
		<node id="317" x="31700.0" y="0.0" >
		</node>
		<node id="318" x="31800.0" y="0.0" >
		</node>
		<node id="319" x="31900.0" y="0.0" >
		</node>
		<node id="32" x="3200.0" y="0.0" >
		</node>
		<node id="320" x="32000.0" y="0.0" >
		</node>
		<node id="321" x="32100.0" y="0.0" >
		</node>
		<node id="322" x="32200.0" y="0.0" >
		</node>
		<node id="323" x="32300.0" y="0.0" >
		</node>
		<node id="324" x="32400.0" y="0.0" >
		</node>
		<node id="325" x="32500.0" y="0.0" >
		</node>
		<node id="326" x="32600.0" y="0.0" >
		</node>
		<node id="327" x="32700.0" y="0.0" >
		</node>
		<node id="328" x="32800.0" y="0.0" >
		</node>
		<node id="329" x="32900.0" y="0.0" >
		</node>
		<node id="33" x="3300.0" y="0.0" >
		</node>
		<node id="330" x="33000.0" y="0.0" >
		</node>
		<node id="331" x="33100.0" y="0.0" >
		</node>
		<node id="332" x="33200.0" y="0.0" >
		</node>
		<node id="333" x="33300.0" y="0.0" >
		</node>
		<node id="334" x="33400.0" y="0.0" >
		</node>
		<node id="335" x="33500.0" y="0.0" >
		</node>
		<node id="336" x="33600.0" y="0.0" >
		</node>
		<node id="337" x="33700.0" y="0.0" >
		</node>
		<node id="338" x="33800.0" y="0.0" >
		</node>
		<node id="339" x="33900.0" y="0.0" >
		</node>
		<node id="34" x="3400.0" y="0.0" >
		</node>
		<node id="340" x="34000.0" y="0.0" >
		</node>
		<node id="341" x="34100.0" y="0.0" >
		</node>
		<node id="342" x="34200.0" y="0.0" >
		</node>
		<node id="343" x="34300.0" y="0.0" >
		</node>
		<node id="344" x="34400.0" y="0.0" >
		</node>
		<node id="345" x="34500.0" y="0.0" >
		</node>
		<node id="346" x="34600.0" y="0.0" >
		</node>
		<node id="347" x="34700.0" y="0.0" >
		</node>
		<node id="348" x="34800.0" y="0.0" >
		</node>
		<node id="349" x="34900.0" y="0.0" >
		</node>
		<node id="35" x="3500.0" y="0.0" >
		</node>
		<node id="350" x="35000.0" y="0.0" >
		</node>
		<node id="351" x="35100.0" y="0.0" >
		</node>
		<node id="352" x="35200.0" y="0.0" >
		</node>
		<node id="353" x="35300.0" y="0.0" >
		</node>
		<node id="354" x="35400.0" y="0.0" >
		</node>
		<node id="355" x="35500.0" y="0.0" >
		</node>
		<node id="356" x="35600.0" y="0.0" >
		</node>
		<node id="357" x="35700.0" y="0.0" >
		</node>
		<node id="358" x="35800.0" y="0.0" >
		</node>
		<node id="359" x="35900.0" y="0.0" >
		</node>
		<node id="36" x="3600.0" y="0.0" >
		</node>
		<node id="360" x="36000.0" y="0.0" >
		</node>
		<node id="361" x="36100.0" y="0.0" >
		</node>
		<node id="362" x="36200.0" y="0.0" >
		</node>
		<node id="363" x="36300.0" y="0.0" >
		</node>
		<node id="364" x="36400.0" y="0.0" >
		</node>
		<node id="365" x="36500.0" y="0.0" >
		</node>
		<node id="366" x="36600.0" y="0.0" >
		</node>
		<node id="367" x="36700.0" y="0.0" >
		</node>
		<node id="368" x="36800.0" y="0.0" >
		</node>
		<node id="369" x="36900.0" y="0.0" >
		</node>
		<node id="37" x="3700.0" y="0.0" >
		</node>
		<node id="370" x="37000.0" y="0.0" >
		</node>
		<node id="371" x="37100.0" y="0.0" >
		</node>
		<node id="372" x="37200.0" y="0.0" >
		</node>
		<node id="373" x="37300.0" y="0.0" >
		</node>
		<node id="374" x="37400.0" y="0.0" >
		</node>
		<node id="375" x="37500.0" y="0.0" >
		</node>
		<node id="376" x="37600.0" y="0.0" >
		</node>
		<node id="377" x="37700.0" y="0.0" >
		</node>
		<node id="378" x="37800.0" y="0.0" >
		</node>
		<node id="379" x="37900.0" y="0.0" >
		</node>
		<node id="38" x="3800.0" y="0.0" >
		</node>
		<node id="380" x="38000.0" y="0.0" >
		</node>
		<node id="381" x="38100.0" y="0.0" >
		</node>
		<node id="382" x="38200.0" y="0.0" >
		</node>
		<node id="383" x="38300.0" y="0.0" >
		</node>
		<node id="384" x="38400.0" y="0.0" >
		</node>
		<node id="385" x="38500.0" y="0.0" >
		</node>
		<node id="386" x="38600.0" y="0.0" >
		</node>
		<node id="387" x="38700.0" y="0.0" >
		</node>
		<node id="388" x="38800.0" y="0.0" >
		</node>
		<node id="389" x="38900.0" y="0.0" >
		</node>
		<node id="39" x="3900.0" y="0.0" >
		</node>
		<node id="390" x="39000.0" y="0.0" >
		</node>
		<node id="391" x="39100.0" y="0.0" >
		</node>
		<node id="392" x="39200.0" y="0.0" >
		</node>
		<node id="393" x="39300.0" y="0.0" >
		</node>
		<node id="394" x="39400.0" y="0.0" >
		</node>
		<node id="395" x="39500.0" y="0.0" >
		</node>
		<node id="396" x="39600.0" y="0.0" >
		</node>
		<node id="397" x="39700.0" y="0.0" >
		</node>
		<node id="398" x="39800.0" y="0.0" >
		</node>
		<node id="399" x="39900.0" y="0.0" >
		</node>
		<node id="4" x="400.0" y="0.0" >
		</node>
		<node id="40" x="4000.0" y="0.0" >
		</node>
		<node id="400" x="40000.0" y="0.0" >
		</node>
		<node id="401" x="40100.0" y="0.0" >
		</node>
		<node id="402" x="40200.0" y="0.0" >
		</node>
		<node id="403" x="40300.0" y="0.0" >
		</node>
		<node id="404" x="40400.0" y="0.0" >
		</node>
		<node id="405" x="40500.0" y="0.0" >
		</node>
		<node id="406" x="40600.0" y="0.0" >
		</node>
		<node id="407" x="40700.0" y="0.0" >
		</node>
		<node id="408" x="40800.0" y="0.0" >
		</node>
		<node id="409" x="40900.0" y="0.0" >
		</node>
		<node id="41" x="4100.0" y="0.0" >
		</node>
		<node id="410" x="41000.0" y="0.0" >
		</node>
		<node id="411" x="41100.0" y="0.0" >
		</node>
		<node id="412" x="41200.0" y="0.0" >
		</node>
		<node id="413" x="41300.0" y="0.0" >
		</node>
		<node id="414" x="41400.0" y="0.0" >
		</node>
		<node id="415" x="41500.0" y="0.0" >
		</node>
		<node id="416" x="41600.0" y="0.0" >
		</node>
		<node id="417" x="41700.0" y="0.0" >
		</node>
		<node id="418" x="41800.0" y="0.0" >
		</node>
		<node id="419" x="41900.0" y="0.0" >
		</node>
		<node id="42" x="4200.0" y="0.0" >
		</node>
		<node id="420" x="42000.0" y="0.0" >
		</node>
		<node id="421" x="42100.0" y="0.0" >
		</node>
		<node id="422" x="42200.0" y="0.0" >
		</node>
		<node id="423" x="42300.0" y="0.0" >
		</node>
		<node id="424" x="42400.0" y="0.0" >
		</node>
		<node id="425" x="42500.0" y="0.0" >
		</node>
		<node id="426" x="42600.0" y="0.0" >
		</node>
		<node id="427" x="42700.0" y="0.0" >
		</node>
		<node id="428" x="42800.0" y="0.0" >
		</node>
		<node id="429" x="42900.0" y="0.0" >
		</node>
		<node id="43" x="4300.0" y="0.0" >
		</node>
		<node id="430" x="43000.0" y="0.0" >
		</node>
		<node id="431" x="43100.0" y="0.0" >
		</node>
		<node id="432" x="43200.0" y="0.0" >
		</node>
		<node id="433" x="43300.0" y="0.0" >
		</node>
		<node id="434" x="43400.0" y="0.0" >
		</node>
		<node id="435" x="43500.0" y="0.0" >
		</node>
		<node id="436" x="43600.0" y="0.0" >
		</node>
		<node id="437" x="43700.0" y="0.0" >
		</node>
		<node id="438" x="43800.0" y="0.0" >
		</node>
		<node id="439" x="43900.0" y="0.0" >
		</node>
		<node id="44" x="4400.0" y="0.0" >
		</node>
		<node id="440" x="44000.0" y="0.0" >
		</node>
		<node id="441" x="44100.0" y="0.0" >
		</node>
		<node id="442" x="44200.0" y="0.0" >
		</node>
		<node id="443" x="44300.0" y="0.0" >
		</node>
		<node id="444" x="44400.0" y="0.0" >
		</node>
		<node id="445" x="44500.0" y="0.0" >
		</node>
		<node id="446" x="44600.0" y="0.0" >
		</node>
		<node id="447" x="44700.0" y="0.0" >
		</node>
		<node id="448" x="44800.0" y="0.0" >
		</node>
		<node id="449" x="44900.0" y="0.0" >
		</node>
		<node id="45" x="4500.0" y="0.0" >
		</node>
		<node id="450" x="45000.0" y="0.0" >
		</node>
		<node id="451" x="45100.0" y="0.0" >
		</node>
		<node id="452" x="45200.0" y="0.0" >
		</node>
		<node id="453" x="45300.0" y="0.0" >
		</node>
		<node id="454" x="45400.0" y="0.0" >
		</node>
		<node id="455" x="45500.0" y="0.0" >
		</node>
		<node id="456" x="45600.0" y="0.0" >
		</node>
		<node id="457" x="45700.0" y="0.0" >
		</node>
		<node id="458" x="45800.0" y="0.0" >
		</node>
		<node id="459" x="45900.0" y="0.0" >
		</node>
		<node id="46" x="4600.0" y="0.0" >
		</node>
		<node id="460" x="46000.0" y="0.0" >
		</node>
		<node id="461" x="46100.0" y="0.0" >
		</node>
		<node id="462" x="46200.0" y="0.0" >
		</node>
		<node id="463" x="46300.0" y="0.0" >
		</node>
		<node id="464" x="46400.0" y="0.0" >
		</node>
		<node id="465" x="46500.0" y="0.0" >
		</node>
		<node id="466" x="46600.0" y="0.0" >
		</node>
		<node id="467" x="46700.0" y="0.0" >
		</node>
		<node id="468" x="46800.0" y="0.0" >
		</node>
		<node id="469" x="46900.0" y="0.0" >
		</node>
		<node id="47" x="4700.0" y="0.0" >
		</node>
		<node id="470" x="47000.0" y="0.0" >
		</node>
		<node id="471" x="47100.0" y="0.0" >
		</node>
		<node id="472" x="47200.0" y="0.0" >
		</node>
		<node id="473" x="47300.0" y="0.0" >
		</node>
		<node id="474" x="47400.0" y="0.0" >
		</node>
		<node id="475" x="47500.0" y="0.0" >
		</node>
		<node id="476" x="47600.0" y="0.0" >
		</node>
		<node id="477" x="47700.0" y="0.0" >
		</node>
		<node id="478" x="47800.0" y="0.0" >
		</node>
		<node id="479" x="47900.0" y="0.0" >
		</node>
		<node id="48" x="4800.0" y="0.0" >
		</node>
		<node id="480" x="48000.0" y="0.0" >
		</node>
		<node id="481" x="48100.0" y="0.0" >
		</node>
		<node id="482" x="48200.0" y="0.0" >
		</node>
		<node id="483" x="48300.0" y="0.0" >
		</node>
		<node id="484" x="48400.0" y="0.0" >
		</node>
		<node id="485" x="48500.0" y="0.0" >
		</node>
		<node id="486" x="48600.0" y="0.0" >
		</node>
		<node id="487" x="48700.0" y="0.0" >
		</node>
		<node id="488" x="48800.0" y="0.0" >
		</node>
		<node id="489" x="48900.0" y="0.0" >
		</node>
		<node id="49" x="4900.0" y="0.0" >
		</node>
		<node id="490" x="49000.0" y="0.0" >
		</node>
		<node id="491" x="49100.0" y="0.0" >
		</node>
		<node id="492" x="49200.0" y="0.0" >
		</node>
		<node id="493" x="49300.0" y="0.0" >
		</node>
		<node id="494" x="49400.0" y="0.0" >
		</node>
		<node id="495" x="49500.0" y="0.0" >
		</node>
		<node id="496" x="49600.0" y="0.0" >
		</node>
		<node id="497" x="49700.0" y="0.0" >
		</node>
		<node id="498" x="49800.0" y="0.0" >
		</node>
		<node id="499" x="49900.0" y="0.0" >
		</node>
		<node id="5" x="500.0" y="0.0" >
		</node>
		<node id="50" x="5000.0" y="0.0" >
		</node>
		<node id="500" x="50000.0" y="0.0" >
		</node>
		<node id="501" x="50100.0" y="0.0" >
		</node>
		<node id="502" x="50200.0" y="0.0" >
		</node>
		<node id="503" x="50300.0" y="0.0" >
		</node>
		<node id="504" x="50400.0" y="0.0" >
		</node>
		<node id="505" x="50500.0" y="0.0" >
		</node>
		<node id="506" x="50600.0" y="0.0" >
		</node>
		<node id="507" x="50700.0" y="0.0" >
		</node>
		<node id="508" x="50800.0" y="0.0" >
		</node>
		<node id="509" x="50900.0" y="0.0" >
		</node>
		<node id="51" x="5100.0" y="0.0" >
		</node>
		<node id="510" x="51000.0" y="0.0" >
		</node>
		<node id="511" x="51100.0" y="0.0" >
		</node>
		<node id="512" x="51200.0" y="0.0" >
		</node>
		<node id="513" x="51300.0" y="0.0" >
		</node>
		<node id="514" x="51400.0" y="0.0" >
		</node>
		<node id="515" x="51500.0" y="0.0" >
		</node>
		<node id="516" x="51600.0" y="0.0" >
		</node>
		<node id="517" x="51700.0" y="0.0" >
		</node>
		<node id="518" x="51800.0" y="0.0" >
		</node>
		<node id="519" x="51900.0" y="0.0" >
		</node>
		<node id="52" x="5200.0" y="0.0" >
		</node>
		<node id="520" x="52000.0" y="0.0" >
		</node>
		<node id="521" x="52100.0" y="0.0" >
		</node>
		<node id="522" x="52200.0" y="0.0" >
		</node>
		<node id="523" x="52300.0" y="0.0" >
		</node>
		<node id="524" x="52400.0" y="0.0" >
		</node>
		<node id="525" x="52500.0" y="0.0" >
		</node>
		<node id="526" x="52600.0" y="0.0" >
		</node>
		<node id="527" x="52700.0" y="0.0" >
		</node>
		<node id="528" x="52800.0" y="0.0" >
		</node>
		<node id="529" x="52900.0" y="0.0" >
		</node>
		<node id="53" x="5300.0" y="0.0" >
		</node>
		<node id="530" x="53000.0" y="0.0" >
		</node>
		<node id="531" x="53100.0" y="0.0" >
		</node>
		<node id="532" x="53200.0" y="0.0" >
		</node>
		<node id="533" x="53300.0" y="0.0" >
		</node>
		<node id="534" x="53400.0" y="0.0" >
		</node>
		<node id="535" x="53500.0" y="0.0" >
		</node>
		<node id="536" x="53600.0" y="0.0" >
		</node>
		<node id="537" x="53700.0" y="0.0" >
		</node>
		<node id="538" x="53800.0" y="0.0" >
		</node>
		<node id="539" x="53900.0" y="0.0" >
		</node>
		<node id="54" x="5400.0" y="0.0" >
		</node>
		<node id="540" x="54000.0" y="0.0" >
		</node>
		<node id="541" x="54100.0" y="0.0" >
		</node>
		<node id="542" x="54200.0" y="0.0" >
		</node>
		<node id="543" x="54300.0" y="0.0" >
		</node>
		<node id="544" x="54400.0" y="0.0" >
		</node>
		<node id="545" x="54500.0" y="0.0" >
		</node>
		<node id="546" x="54600.0" y="0.0" >
		</node>
		<node id="547" x="54700.0" y="0.0" >
		</node>
		<node id="548" x="54800.0" y="0.0" >
		</node>
		<node id="549" x="54900.0" y="0.0" >
		</node>
		<node id="55" x="5500.0" y="0.0" >
		</node>
		<node id="550" x="55000.0" y="0.0" >
		</node>
		<node id="551" x="55100.0" y="0.0" >
		</node>
		<node id="552" x="55200.0" y="0.0" >
		</node>
		<node id="553" x="55300.0" y="0.0" >
		</node>
		<node id="554" x="55400.0" y="0.0" >
		</node>
		<node id="555" x="55500.0" y="0.0" >
		</node>
		<node id="556" x="55600.0" y="0.0" >
		</node>
		<node id="557" x="55700.0" y="0.0" >
		</node>
		<node id="558" x="55800.0" y="0.0" >
		</node>
		<node id="559" x="55900.0" y="0.0" >
		</node>
		<node id="56" x="5600.0" y="0.0" >
		</node>
		<node id="560" x="56000.0" y="0.0" >
		</node>
		<node id="561" x="56100.0" y="0.0" >
		</node>
		<node id="562" x="56200.0" y="0.0" >
		</node>
		<node id="563" x="56300.0" y="0.0" >
		</node>
		<node id="564" x="56400.0" y="0.0" >
		</node>
		<node id="565" x="56500.0" y="0.0" >
		</node>
		<node id="566" x="56600.0" y="0.0" >
		</node>
		<node id="567" x="56700.0" y="0.0" >
		</node>
		<node id="568" x="56800.0" y="0.0" >
		</node>
		<node id="569" x="56900.0" y="0.0" >
		</node>
		<node id="57" x="5700.0" y="0.0" >
		</node>
		<node id="570" x="57000.0" y="0.0" >
		</node>
		<node id="571" x="57100.0" y="0.0" >
		</node>
		<node id="572" x="57200.0" y="0.0" >
		</node>
		<node id="573" x="57300.0" y="0.0" >
		</node>
		<node id="574" x="57400.0" y="0.0" >
		</node>
		<node id="575" x="57500.0" y="0.0" >
		</node>
		<node id="576" x="57600.0" y="0.0" >
		</node>
		<node id="577" x="57700.0" y="0.0" >
		</node>
		<node id="578" x="57800.0" y="0.0" >
		</node>
		<node id="579" x="57900.0" y="0.0" >
		</node>
		<node id="58" x="5800.0" y="0.0" >
		</node>
		<node id="580" x="58000.0" y="0.0" >
		</node>
		<node id="581" x="58100.0" y="0.0" >
		</node>
		<node id="582" x="58200.0" y="0.0" >
		</node>
		<node id="583" x="58300.0" y="0.0" >
		</node>
		<node id="584" x="58400.0" y="0.0" >
		</node>
		<node id="585" x="58500.0" y="0.0" >
		</node>
		<node id="586" x="58600.0" y="0.0" >
		</node>
		<node id="587" x="58700.0" y="0.0" >
		</node>
		<node id="588" x="58800.0" y="0.0" >
		</node>
		<node id="589" x="58900.0" y="0.0" >
		</node>
		<node id="59" x="5900.0" y="0.0" >
		</node>
		<node id="590" x="59000.0" y="0.0" >
		</node>
		<node id="591" x="59100.0" y="0.0" >
		</node>
		<node id="592" x="59200.0" y="0.0" >
		</node>
		<node id="593" x="59300.0" y="0.0" >
		</node>
		<node id="594" x="59400.0" y="0.0" >
		</node>
		<node id="595" x="59500.0" y="0.0" >
		</node>
		<node id="596" x="59600.0" y="0.0" >
		</node>
		<node id="597" x="59700.0" y="0.0" >
		</node>
		<node id="598" x="59800.0" y="0.0" >
		</node>
		<node id="599" x="59900.0" y="0.0" >
		</node>
		<node id="6" x="600.0" y="0.0" >
		</node>
		<node id="60" x="6000.0" y="0.0" >
		</node>
		<node id="600" x="60000.0" y="0.0" >
		</node>
		<node id="601" x="60100.0" y="0.0" >
		</node>
		<node id="602" x="60200.0" y="0.0" >
		</node>
		<node id="603" x="60300.0" y="0.0" >
		</node>
		<node id="604" x="60400.0" y="0.0" >
		</node>
		<node id="605" x="60500.0" y="0.0" >
		</node>
		<node id="606" x="60600.0" y="0.0" >
		</node>
		<node id="607" x="60700.0" y="0.0" >
		</node>
		<node id="608" x="60800.0" y="0.0" >
		</node>
		<node id="609" x="60900.0" y="0.0" >
		</node>
		<node id="61" x="6100.0" y="0.0" >
		</node>
		<node id="610" x="61000.0" y="0.0" >
		</node>
		<node id="611" x="61100.0" y="0.0" >
		</node>
		<node id="612" x="61200.0" y="0.0" >
		</node>
		<node id="613" x="61300.0" y="0.0" >
		</node>
		<node id="614" x="61400.0" y="0.0" >
		</node>
		<node id="615" x="61500.0" y="0.0" >
		</node>
		<node id="616" x="61600.0" y="0.0" >
		</node>
		<node id="617" x="61700.0" y="0.0" >
		</node>
		<node id="618" x="61800.0" y="0.0" >
		</node>
		<node id="619" x="61900.0" y="0.0" >
		</node>
		<node id="62" x="6200.0" y="0.0" >
		</node>
		<node id="620" x="62000.0" y="0.0" >
		</node>
		<node id="621" x="62100.0" y="0.0" >
		</node>
		<node id="622" x="62200.0" y="0.0" >
		</node>
		<node id="623" x="62300.0" y="0.0" >
		</node>
		<node id="624" x="62400.0" y="0.0" >
		</node>
		<node id="625" x="62500.0" y="0.0" >
		</node>
		<node id="626" x="62600.0" y="0.0" >
		</node>
		<node id="627" x="62700.0" y="0.0" >
		</node>
		<node id="628" x="62800.0" y="0.0" >
		</node>
		<node id="629" x="62900.0" y="0.0" >
		</node>
		<node id="63" x="6300.0" y="0.0" >
		</node>
		<node id="630" x="63000.0" y="0.0" >
		</node>
		<node id="631" x="63100.0" y="0.0" >
		</node>
		<node id="632" x="63200.0" y="0.0" >
		</node>
		<node id="633" x="63300.0" y="0.0" >
		</node>
		<node id="634" x="63400.0" y="0.0" >
		</node>
		<node id="635" x="63500.0" y="0.0" >
		</node>
		<node id="636" x="63600.0" y="0.0" >
		</node>
		<node id="637" x="63700.0" y="0.0" >
		</node>
		<node id="638" x="63800.0" y="0.0" >
		</node>
		<node id="639" x="63900.0" y="0.0" >
		</node>
		<node id="64" x="6400.0" y="0.0" >
		</node>
		<node id="640" x="64000.0" y="0.0" >
		</node>
		<node id="641" x="64100.0" y="0.0" >
		</node>
		<node id="642" x="64200.0" y="0.0" >
		</node>
		<node id="643" x="64300.0" y="0.0" >
		</node>
		<node id="644" x="64400.0" y="0.0" >
		</node>
		<node id="645" x="64500.0" y="0.0" >
		</node>
		<node id="646" x="64600.0" y="0.0" >
		</node>